 3 2 0 0 5    45 9 0 7 18    1 0 1 0 3    

20 20 20 7 7    100 0.0 0.0 1 5

         1           1.01163789           0.02551656          -0.10560150
         2           1.97952481          -0.01558025          -0.08399240
         2           0.73278869          -0.79586834           0.32629081


8.0   5
0   6
      5484.6717000              0.0018311        
       825.2349500              0.0139501        
       188.0469600              0.0684451        
        52.9645000              0.2327143        
        16.8975700              0.4701930        
         5.7996353              0.3585209        
0   3
        15.5396160             -0.1107775              
         3.5999336             -0.1480263              
         1.0137618              1.1307670              
1   3
        15.5396160              0.0708743        
         3.5999336              0.3397528        
         1.0137618              0.7271586        
0   1
         0.2700058              
1   1
         0.2700058
1.0    2
0   3
        18.7311370              0.03349460       
         2.8253937              0.23472695       
         0.6401217              0.81375733       
0   1
         0.1612778

3    1 2 3   9
1 1.0
6 0.0
7 0.0
8 0.0
9 0.0
10 0.0
11 0.0
12 0.0
13 0.0
3    1 2 3   9
2 1.0
6 0.0
7 0.0
8 0.0
9 0.0
10 0.0
11 0.0
12 0.0
13 0.0
3    1 2 3   9
3 1.0
6 0.0
7 0.0
8 0.0
9 0.0
10 0.0
11 0.0
12 0.0
13 0.0
3    1 2 3   9
4 1.0
6 0.0
7 0.0
8 0.0
9 0.0
10 0.0
11 0.0
12 0.0
13 0.0
3    1 2 3   9
5 1.0
6 0.0
7 0.0
8 0.0
9 0.0
10 0.0
11 0.0
12 0.0
13 0.0
# generated from python vtools.py -i O -A